Mass spectrum: Luteolin; LC-ESI-ITFT; MS2; CE: 10; R=; [M+H]+
Name: Luteolin
Name: 2-(3,4-dihydroxyphenyl)-5,7-dihydroxychromen-4-one
Formula: C15H10O6
Exact mass: 286.0477
SMILES: Oc1cc(O)c2c(c1)oc(cc2=O)-c1ccc(O)c(O)c1
InChI: InChI=1S/C15H10O6/c16-8-4-11(19)15-12(20)6-13(21-14(15)5-8)7-1-2-9(17)10(18)3-7/h1-6,16-19H
Instrument: LTQ Orbitrap XL Thermo Scientific
Instrument type: LC-ESI-ITFT
Ms type: MS2
Ionization: ESI
Ion mode: POSITIVE
Fragmentation mode: CID
Collision energy: 10
Retention time: 3.693 min
Base peak: 287.0564
Precursor m/z: 287.055
Precursor type: [M+H]+
m/z	relative intensity	assigned
153.0212	1	C10H3NO+
169.0465	1	C3H9N2O6+
257.0461	1	C14H9O5+
285.0405	1	C15H9O6+
286.0484	1	C15H10O6+
287.0563	999	C15H11O6+
289.0606	28	C14H11NO6+
291.0621	2	C13H11N2O6+
292.0424	1	C13H10NO7+
