Mass spectrum: Kaempferol; LC-ESI-ITFT; MS2; CE: 40; R=; [M+H]+
Name: Kaempferol
Name: 3,5,7-trihydroxy-2-(4-hydroxyphenyl)chromen-4-one
Formula: C15H10O6
Exact mass: 286.0477
SMILES: Oc1ccc(cc1)-c1oc2cc(O)cc(O)c2c(=O)c1O
InChI: InChI=1S/C15H10O6/c16-8-3-1-7(2-4-8)15-14(20)13(19)12-10(18)5-9(17)6-11(12)21-15/h1-6,16-18,20H
Instrument: LTQ Orbitrap XL Thermo Scientific
Instrument type: LC-ESI-ITFT
Ms type: MS2
Ionization: ESI
Ion mode: POSITIVE
Fragmentation mode: CID
Collision energy: 40
Retention time: 4.001 min
Base peak: 287.0562
Precursor m/z: 287.055
Precursor type: [M+H]+
m/z	relative intensity	assigned
119.0485	10	C8H7O+
121.0275	63	C7H5O2+
133.028	14	C8H5O2+
136.0146	19	C7H4O3+
140.0581	19	C6H8N2O2+
141.0188	14	C6H5O4+
141.0698	9	C11H9+
144.0535	12	C5H8N2O3+
147.0448	27	C9H7O2+
153.0187	321	C7H5O4+
154.0218	38	C2H6N2O6+
155.0484	8	C11H7O+
157.0644	85	C11H9O+
161.061	19	C10H9O2+
163.0374	14	C9H7O3+
165.0187	175	C8H5O4+
167.0505	23	C12H7O+
169.0647	29	C12H9O+
175.0398	14	C10H7O3+
178.028	17	C12H4NO+
179.0334	7	C9H7O4+
181.0143	6	C8H5O5+
183.0293	49	C8H7O5+
184.0507	6	C12H8O2+
185.0605	90	C12H9O2+
188.0479	10	C11H8O3+
189.0153	13	C5H5N2O6+
189.0539	24	C11H9O3+
193.0144	8	C9H5O5+
194.021	16	C9H6O5+
196.0479	10	C8H8N2O4+
201.0562	19	C12H9O3+
202.0612	14	C12H10O3+
203.0358	13	C11H7O4+
203.0706	24	C12H11O3+
205.0481	10	C11H9O4+
213.0549	165	C13H9O3+
214.0588	18	C8H10N2O5+
216.0425	9	C12H8O4+
217.0495	22	C12H9O4+
221.0083	6	C10H5O6+
223.0399	7	C14H7O3+
226.0608	15	C14H10O3+
229.0478	35	C13H9O4+
230.0583	8	C13H10O4+
231.0653	81	C13H11O4+
241.0503	137	C14H9O4+
242.0574	28	C14H10O4+
243.0642	14	C14H11O4+
244.0373	17	C13H8O5+
245.044	9	C13H9O5+
257.0439	11	C14H9O5+
258.0521	126	C14H10O5+
259.0587	72	C14H11O5+
261.0652	14	C13H11NO5+
269.044	35	C15H9O5+
270.0539	24	C15H10O5+
287.0559	999	C15H11O6+
