Mass spectrum: Luteolin; LC-ESI-ITFT; MS2; CE: 20; R=; [M+H]+
Name: Luteolin
Name: 2-(3,4-dihydroxyphenyl)-5,7-dihydroxychromen-4-one
Formula: C15H10O6
Exact mass: 286.0477
SMILES: Oc1cc(O)c2c(c1)oc(cc2=O)-c1ccc(O)c(O)c1
InChI: InChI=1S/C15H10O6/c16-8-4-11(19)15-12(20)6-13(21-14(15)5-8)7-1-2-9(17)10(18)3-7/h1-6,16-19H
Instrument: LTQ Orbitrap XL Thermo Scientific
Instrument type: LC-ESI-ITFT
Ms type: MS2
Ionization: ESI
Ion mode: POSITIVE
Fragmentation mode: CID
Collision energy: 20
Retention time: 3.693 min
Base peak: 287.0564
Precursor m/z: 287.055
Precursor type: [M+H]+
m/z	relative intensity	assigned
230.049	2	C15H6N2O+
257.0424	2	C14H9O5+
258.0492	2	C9H10N2O7+
286.0486	2	C15H10O6+
287.0563	999	C15H11O6+
289.0609	24	C14H11NO6+
291.0403	1	C13H9NO7+
299.9985	1	C13H4N2O7+
