Mass spectrum: Folic acid; LC-ESI-ITFT; MS2; CE: 20; R=; [M+H]+
Name: Folic acid
Name: (2S)-2-[[4-[(2-amino-4-oxo-1H-pteridin-6-yl)methylamino]benzoyl]amino]pentanedioic acid
Formula: C19H19N7O6
Exact mass: 441.1397
SMILES: Nc1nc2ncc(CNc3ccc(cc3)C(=O)N[C@@H](CCC(O)=O)C(O)=O)nc2c(=O)[nH]1
InChI: InChI=1S/C19H19N7O6/c20-19-25-15-14(17(30)26-19)23-11(8-22-15)7-21-10-3-1-9(2-4-10)16(29)24-12(18(31)32)5-6-13(27)28/h1-4,8,12,21H,5-7H2,(H,24,29)(H,27,28)(H,31,32)(H3,20,22,25,26,30)/t12-/m0/s1
Instrument: LTQ Orbitrap XL Thermo Scientific
Instrument type: LC-ESI-ITFT
Ms type: MS2
Ionization: ESI
Ion mode: POSITIVE
Fragmentation mode: CID
Collision energy: 20
Retention time: 2.451 min
Base peak: 442.148
Precursor m/z: 442.147
Precursor type: [M+H]+
m/z	relative intensity	assigned
176.0579	3	C9H8N2O2+
181.1541	2	C5H19N5O2+
269.1142	5	C13H13N6O+
270.1456	2	C13H16N7+
294.0499	4	C13H6N6O3+
295.0953	999	C16H13N3O3+
296.0972	161	C11H14N5O5+
297.0989	12	C17H15NO4+
298.0993	2	C19H12N3O+
301.068	2	C12H9N6O4+
305.1021	8	C16H17O6+
309.0995	2	C18H15NO4+
313.1052	12	C16H15N3O4+
313.1744	1	C14H19N9+
314.1068	3	C11H16N5O6+
442.1441	7	C19H20N7O6+
