Mass spectrum: Folic acid; LC-ESI-ITFT; MS2; CE: 40; R=; [M+H]+
Name: Folic acid
Name: (2S)-2-[[4-[(2-amino-4-oxo-1H-pteridin-6-yl)methylamino]benzoyl]amino]pentanedioic acid
Formula: C19H19N7O6
Exact mass: 441.1397
SMILES: Nc1nc2ncc(CNc3ccc(cc3)C(=O)N[C@@H](CCC(O)=O)C(O)=O)nc2c(=O)[nH]1
InChI: InChI=1S/C19H19N7O6/c20-19-25-15-14(17(30)26-19)23-11(8-22-15)7-21-10-3-1-9(2-4-10)16(29)24-12(18(31)32)5-6-13(27)28/h1-4,8,12,21H,5-7H2,(H,24,29)(H,27,28)(H,31,32)(H3,20,22,25,26,30)/t12-/m0/s1
Instrument: LTQ Orbitrap XL Thermo Scientific
Instrument type: LC-ESI-ITFT
Ms type: MS2
Ionization: ESI
Ion mode: POSITIVE
Fragmentation mode: CID
Collision energy: 40
Retention time: 2.451 min
Base peak: 442.148
Precursor m/z: 442.147
Precursor type: [M+H]+
m/z	relative intensity	assigned
120.0767	3	C3H10N3O2+
121.0464	4	H5N6O2+
132.0441	5	C8H6NO+
176.0576	226	C9H8N2O2+
177.0591	16	C2H7N7O3+
178.0633	2	C10H10O3+
180.0671	3	C12H8N2+
214.0703	3	C7H10N4O4+
239.0808	5	C12H9N5O+
240.0879	5	C12H10N5O+
266.0889	6	C10H12N5O4+
267.0969	4	C12H15N2O5+
269.1129	2	C12H17N2O5+
293.0717	3	C18H7N5+
295.0948	999	C16H13N3O3+
296.097	144	C11H14N5O5+
297.1006	8	C18H11N5+
299.0019	3	C10HN7O5+
303.0884	3	C19H13NO3+
313.1044	17	C14H13N6O3+
314.108	3	C11H16N5O6+
314.1842	3	C14H20N9+
