Mass spectrum: Folic acid; LC-ESI-ITFT; MS2; CE: 10; R=; [M+H]+
Name: Folic acid
Name: (2S)-2-[[4-[(2-amino-4-oxo-1H-pteridin-6-yl)methylamino]benzoyl]amino]pentanedioic acid
Formula: C19H19N7O6
Exact mass: 441.1397
SMILES: Nc1nc2ncc(CNc3ccc(cc3)C(=O)N[C@@H](CCC(O)=O)C(O)=O)nc2c(=O)[nH]1
InChI: InChI=1S/C19H19N7O6/c20-19-25-15-14(17(30)26-19)23-11(8-22-15)7-21-10-3-1-9(2-4-10)16(29)24-12(18(31)32)5-6-13(27)28/h1-4,8,12,21H,5-7H2,(H,24,29)(H,27,28)(H,31,32)(H3,20,22,25,26,30)/t12-/m0/s1
Instrument: LTQ Orbitrap XL Thermo Scientific
Instrument type: LC-ESI-ITFT
Ms type: MS2
Ionization: ESI
Ion mode: POSITIVE
Fragmentation mode: CID
Collision energy: 10
Retention time: 2.451 min
Base peak: 442.148
Precursor m/z: 442.147
Precursor type: [M+H]+
m/z	relative intensity	assigned
269.1186	5	C17H17O3+
270.1193	4	C10H16N5O4+
295.0951	999	C16H13N3O3+
296.0976	135	C11H14N5O5+
297.1017	24	C18H11N5+
299.1004	3	C14H13N5O3+
302.1664	3	C9H20N9O3+
304.0827	4	C16H10N5O2+
313.106	32	C16H15N3O4+
315.1156	6	C11H17N5O6+
316.1213	4	C18H14N5O+
424.1338	3	C19H18N7O5+
440.1346	2	C19H18N7O6+
441.1377	5	C19H19N7O6+
442.1477	627	C19H20N7O6+
444.1521	27	C18H20N8O6+
452.0705	6	C17H10N9O7+
