Mass spectrum: Kaempferol; LC-ESI-ITFT; MS2; CE: 20; R=; [M+H]+
Name: Kaempferol
Name: 3,5,7-trihydroxy-2-(4-hydroxyphenyl)chromen-4-one
Formula: C15H10O6
Exact mass: 286.0477
SMILES: Oc1ccc(cc1)-c1oc2cc(O)cc(O)c2c(=O)c1O
InChI: InChI=1S/C15H10O6/c16-8-3-1-7(2-4-8)15-14(20)13(19)12-10(18)5-9(17)6-11(12)21-15/h1-6,16-18,20H
Instrument: LTQ Orbitrap XL Thermo Scientific
Instrument type: LC-ESI-ITFT
Ms type: MS2
Ionization: ESI
Ion mode: POSITIVE
Fragmentation mode: CID
Collision energy: 20
Retention time: 4.001 min
Base peak: 287.0562
Precursor m/z: 287.055
Precursor type: [M+H]+
m/z	relative intensity	assigned
138.0431	2	C6H6N2O2+
257.0437	1	C14H9O5+
286.0457	1	C15H10O6+
287.0566	999	C15H11O6+
