Mass spectrum: Luteolin; LC-ESI-ITFT; MS2; CE: 40; R=; [M+H]+
Name: Luteolin
Name: 2-(3,4-dihydroxyphenyl)-5,7-dihydroxychromen-4-one
Formula: C15H10O6
Exact mass: 286.0477
SMILES: Oc1cc(O)c2c(c1)oc(cc2=O)-c1ccc(O)c(O)c1
InChI: InChI=1S/C15H10O6/c16-8-4-11(19)15-12(20)6-13(21-14(15)5-8)7-1-2-9(17)10(18)3-7/h1-6,16-19H
Instrument: LTQ Orbitrap XL Thermo Scientific
Instrument type: LC-ESI-ITFT
Ms type: MS2
Ionization: ESI
Ion mode: POSITIVE
Fragmentation mode: CID
Collision energy: 40
Retention time: 3.693 min
Base peak: 287.0564
Precursor m/z: 287.055
Precursor type: [M+H]+
m/z	relative intensity	assigned
125.0097	5	C5H3NO3+
128.0611	2	C10H8+
131.0572	5	C5H9NO3+
135.0446	42	C8H7O2+
136.0471	6	C3H8N2O4+
137.0239	5	C7H5O3+
137.0472	5	C7H7NO2+
138.0312	5	C7H6O3+
139.0537	5	C11H7+
140.0565	6	C3H10NO5+
149.0247	5	C8H5O3+
149.0599	3	C9H9O2+
153.0185	265	C7H5O4+
154.0215	19	C2H6N2O6+
155.0213	5	C6H5NO4+
157.0659	5	C11H9O+
161.0249	30	C9H5O3+
162.0265	8	C4H6N2O5+
162.0449	5	C13H6+
167.0477	6	C12H7O+
169.0582	3	C4H11NO6+
175.042	3	C13H5N+
177.0533	7	C10H9O3+
179.0338	30	C9H7O4+
180.037	7	C4H8N2O6+
181.0285	5	C12H5O2+
183.0451	4	C12H7O2+
185.0582	19	C12H9O2+
186.0663	2	C12H10O2+
187.0395	2	C11H7O3+
189.0579	7	C14H7N+
190.0577	2	C6H10N2O5+
195.0456	9	C13H7O2+
196.0481	4	C8H8N2O4+
198.0313	3	C12H6O3+
199.0398	5	C12H7O3+
201.0528	5	C12H9O3+
203.0345	19	C11H7O4+
203.0715	4	C12H11O3+
204.0323	4	C13H4N2O+
212.0474	2	C13H8O3+
213.0552	36	C13H9O3+
214.0583	8	C8H10N2O5+
217.0526	9	C15H7NO+
218.0569	5	C12H10O4+
219.0646	5	C12H11O4+
224.0451	9	C14H8O3+
227.0341	10	C13H7O4+
230.0697	3	C12H10N2O3+
231.0653	8	C13H11O4+
240.0396	3	C14H8O4+
241.0495	91	C14H9O4+
242.0538	16	C9H10N2O6+
243.0544	4	C13H9NO4+
244.0352	2	C13H8O5+
245.0433	24	C13H9O5+
246.0624	3	C12H10N2O4+
257.0446	3	C14H9O5+
258.0519	5	C14H10O5+
259.0584	12	C14H11O5+
260.0565	3	C13H10NO5+
263.0564	3	C13H11O6+
269.0447	72	C15H9O5+
270.0485	11	C10H10N2O7+
287.0559	999	C15H11O6+
289.0597	19	C14H11NO6+
